*Heading
** Job name: bcc Model name: Model-1
** Generated by: Abaqus/CAE 2019.HF24
*Preprint, echo=NO, model=NO, history=NO, contact=NO
**
** PARTS
**
*Part, name=sc_bcc
*Node
      1,           0.,   8.80000019,   5.84852791
      2,   1.20000005,          10.,   5.84852791
      3,   1.20000005,          10.,   8.80000019
      4,  0.848528147,   9.15147209,   9.15147209
      5,           0.,   8.80000019,   8.80000019
      6,   1.20000005,          10.,   4.15147209
      7,           0.,   8.80000019,   4.15147209
      8,           0.,   8.80000019,   1.20000005
      9,  0.848528147,   9.15147209,  0.848528147
     10,   1.20000005,          10.,   1.20000005
     11,           5.,   6.69705629,           5.
     12,   4.02020407,           5.,   4.02020407
     13,   4.02020407,           5.,   5.97979593
     14,           0.,   1.20000005,   1.20000005
     15,  0.848528147,  0.848528147,  0.848528147
     16,   1.20000005,   1.20000005,           0.
     17,   1.20000005,   8.80000019,           0.
     18,   4.15147209,   8.80000019,           0.
     19,   4.15147209,          10.,   1.20000005
     20,   5.84852791,   8.80000019,           0.
** ... 14260 like lines cut
*Element, type=C3D10
   1,  1368,  1369,  1370,  1371,  2223,  2222,  2221,  2225,  2224,  2226
   2,  1372,  1373,  1374,  1375,  2229,  2228,  2227,  2231,  2230,  2232
   3,  1373,  1374,  1375,  1368,  2228,  2232,  2230,  2234,  2233,  2235
   4,  1368,  1375,  1370,  1376,  2235,  2236,  2221,  2238,  2237,  2239
   5,  1368,  1370,  1377,  1371,  2221,  2241,  2240,  2225,  2226,  2242
   6,  1368,  1374,  1378,  1379,  2233,  2244,  2243,  2246,  2245,  2247
   7,  1368,  1378,  1377,  1379,  2243,  2248,  2240,  2246,  2247,  2249
   8,  1380,  1381,  1382,  1383,  2252,  2251,  2250,  2254,  2253,  2255
   9,  1165,  1384,  1155,  1385,  2258,  2257,  2256,  2260,  2259,  2261
  10,  1386,  1387,  1388,  1389,  2264,  2263,  2262,  2266,  2265,  2267
  11,  1386,  1387,  1389,  1383,  2264,  2265,  2266,  2269,  2268,  2270
  12,  1386,  1390,  1381,  1391,  2273,  2272,  2271,  2275,  2274,  2276
  13,  1392,   920,  1393,  1394,  2279,  2278,  2277,  2281,  2280,  2282
  14,  1392,  1395,  1396,  1397,  2285,  2284,  2283,  2287,  2286,  2288
  15,  1392,  1397,  1314,   256,  2287,  2290,  2289,  2292,  2291,  2293
  16,  1398,  1394,   918,  1392,  2296,  2295,  2294,  2297,  2281,  2298
  17,  1392,  1394,   918,   920,  2281,  2295,  2298,  2279,  2280,  2299
  18,  1392,  1395,  1397,  1398,  2285,  2286,  2287,  2297,  2300,  2301
  19,  1399,  1400,  1401,  1402,  2304,  2303,  2302,  2306,  2305,  2307
  20,  1403,  1404,  1405,  1406,  2310,  2309,  2308,  2312,  2311,  2313
** ... 8420 like lines cut
*Nset, nset=Set-1, generate
     1,  14280,      1
*Elset, elset=Set-1, generate
    1,  8440,     1
*Nset, nset=top
     2,     3,     6,    10,    19,    21,    25,    46,    47,    51,    52,    53,    54,    64,    66,    71
    72,    73,    74,    75,    76,    77,    78,    79,    98,    99,   111,   112,   127,   128,   129,   150
   151,   160,   161,   162,   174,   175,   256,   257,   258,   277,   278,   279,   280,   281,   282,   283
   284,   285,   343,   344,   356,   357,   358,   375,   376,   377,   378,   379,   380,   381,   382,   383
   384,   385,   386,   387,   388,   389,   390,   391,   392,   393,   394,   395,   396,   397,   398,   399
  1311,  1312,  1313,  1314,  2293,  2749,  3875,  3877,  3879,  3935,  3939,  3941,  3943,  3998,  4179,  4180
  4182,  4730,  4758,  4816,  4913,  4914,  5992,  6325,  6454,  6455,  6456,  6503,  6665,  6801,  6816,  7176
  7237,  7244,  7250,  7291,  7292,  7300,  7437,  7438,  7439,  7478,  7480,  7512,  7640,  7641,  7825,  7826
  7828,  7988,  8069,  8098,  8121,  8122,  8124,  8241,  8243,  8244,  8348,  8380,  8413,  8424,  8425,  8426
  8448,  8501,  8523,  8543,  8584,  8597,  8598,  8823,  8895,  8898,  8899,  8901,  9713,  9728,  9730,  9731
  9750,  9786,  9787,  9894,  9938,  9954,  9969,  9971, 10091, 10100, 10186, 10191, 10192, 10207, 10208, 10357
 10358, 10679, 10716, 10717, 10718, 10792, 10866, 10868, 10870, 10892, 11241, 11321, 11558, 11770, 11781, 11820
 11828, 11834, 11868, 11878, 11955, 12058, 12284, 12285, 12295, 12296, 12430, 12431, 12481, 12558, 12687, 12719
 12737, 12803, 12829, 12938, 13015, 13016, 13106, 13228, 13274, 13276, 13305, 13381, 13383, 13393, 13578, 13629
 13633, 13711, 13770, 13780, 13782, 13786, 13797, 13798, 13822, 13832, 13843, 13844, 13846, 13853, 13859, 13916
 13938, 13940, 13941, 13943, 13945, 13958, 13961, 13962, 13968, 13971, 13975, 14179, 14181, 14183, 14184, 14251
*Elset, elset=top
  427,  445,  519,  742, 1311, 1607, 1653, 1673, 1721, 1779, 1780, 1884, 1925, 1994, 2034, 2060
 2192, 2598, 2619, 2741, 2743, 2874, 2885, 2986, 3189, 3244, 3288, 3536, 3595, 3843, 3879, 4118
 4123, 4132, 4161, 4236, 4413, 4543, 4549, 4641, 4988, 4993, 5171, 5337, 5363, 5463, 5613, 5828
 5931, 5989, 6149, 6155, 6282, 6619, 6628, 6791, 6808, 6813, 6823, 6826, 6876, 6896, 7080, 7085
 7086, 7108, 7119, 7123, 7126, 7144, 7158, 7159, 7173, 7348, 7441, 7643, 7651, 7812, 7829, 7834
 7835, 8075, 8115, 8119, 8198, 8294, 8366, 8378
** Section: Section-1
*Solid Section, elset=Set-1, material=Material-1
,
*End Part
**  
**
** ASSEMBLY
**
*Assembly, name=Assembly
**  
*Instance, name=sc_bcc-1, part=sc_bcc
*End Instance
**  
*Nset, nset=Set-1, instance=sc_bcc-1
    26,    30,    33,    34,    35,    38,    39,    45,    55,    56,    57,    58,    60,    69,    70,    80
    81,    82,    83,    84,    85,    86,    87,    88,   183,   184,   196,   197,   198,   202,   203,   212
   213,   217,   218,   219,   227,   228,   252,   253,   295,   296,   297,   298,   299,   300,   301,   317
   318,   319,   365,   366,   367,   373,   374,   400,   401,   402,   403,   413,   414,   415,   416,   417
   418,   419,   420,   421,   422,   423,   424,   425,   426,   427,   428,   429,   430,   431,   432,   433
  1317,  1318,  1319,  1320,  3530,  4670,  4991,  5334,  5646,  6213,  6215,  6217,  6746,  6748,  6750,  7354
  7488,  7750,  7888,  7889,  7890,  8088,  8164,  8165,  8167,  8335,  9110,  9125,  9353,  9370,  9565,  9785
  9943, 10276, 10316, 10394, 10398, 10399, 10404, 10419, 10434, 10439, 10471, 10494, 10614, 10625, 10626, 10627
 10641, 10653, 10654, 10753, 10759, 10813, 10831, 10836, 10838, 10839, 11261, 11262, 11263, 11647, 11650, 11652
 11654, 11656, 11658, 11659, 11682, 11942, 11946, 11947, 11951, 11979, 11995, 12002, 12003, 12024, 12028, 12070
 12071, 12093, 12109, 12147, 12193, 12194, 12195, 12294, 12463, 12649, 12728, 12770, 12771, 12772, 12804, 12805
 12822, 12823, 12825, 12877, 12878, 12888, 12895, 12901, 12930, 12949, 12950, 12956, 12957, 12965, 12975, 12976
 13019, 13043, 13078, 13079, 13080, 13152, 13153, 13170, 13269, 13270, 13332, 13334, 13364, 13365, 13433, 13434
 13449, 13450, 13452, 13462, 13469, 13472, 13474, 13480, 13491, 13551, 13603, 13604, 13617, 13640, 13671, 13688
 13689, 13691, 13700, 13729, 13731, 13736, 13863, 13865, 13866, 13868, 13869, 13870, 13873, 13875, 13878, 13884
 13894, 13895, 13901, 13907, 13927, 13928, 13933, 13937, 13974, 14001, 14002, 14153, 14196, 14209, 14221, 14272
*Elset, elset=Set-1, instance=sc_bcc-1
 1199, 1418, 1805, 1897, 2282, 3007, 3137, 3152, 3268, 3553, 3928, 3932, 3934, 4230, 4234, 4264
 4270, 4319, 4345, 4463, 5012, 5075, 5167, 5256, 5264, 5278, 5283, 5345, 5349, 5358, 5395, 5473
 5534, 5556, 5581, 5586, 5616, 5654, 5706, 5712, 5746, 5928, 6029, 6030, 6031, 6079, 6272, 6288
 6294, 6304, 6323, 6339, 6374, 6424, 6571, 6585, 6599, 6640, 6760, 6763, 6905, 6915, 6918, 6927
 6936, 6957, 6959, 6962, 6966, 6969, 6980, 7047, 7049, 7065, 7071, 7072, 7185, 7215, 7219, 7691
 7703, 7726, 7779, 7882, 7971, 8041, 8315, 8419
*Nset, nset=Set-2, instance=sc_bcc-1
     2,     3,     6,    10,    19,    21,    25,    46,    47,    51,    52,    53,    54,    64,    66,    71
    72,    73,    74,    75,    76,    77,    78,    79,    98,    99,   111,   112,   127,   128,   129,   150
   151,   160,   161,   162,   174,   175,   256,   257,   258,   277,   278,   279,   280,   281,   282,   283
   284,   285,   343,   344,   356,   357,   358,   375,   376,   377,   378,   379,   380,   381,   382,   383
   384,   385,   386,   387,   388,   389,   390,   391,   392,   393,   394,   395,   396,   397,   398,   399
  1311,  1312,  1313,  1314,  2293,  2749,  3875,  3877,  3879,  3935,  3939,  3941,  3943,  3998,  4179,  4180
  4182,  4730,  4758,  4816,  4913,  4914,  5992,  6325,  6454,  6455,  6456,  6503,  6665,  6801,  6816,  7176
  7237,  7244,  7250,  7291,  7292,  7300,  7437,  7438,  7439,  7478,  7480,  7512,  7640,  7641,  7825,  7826
  7828,  7988,  8069,  8098,  8121,  8122,  8124,  8241,  8243,  8244,  8348,  8380,  8413,  8424,  8425,  8426
  8448,  8501,  8523,  8543,  8584,  8597,  8598,  8823,  8895,  8898,  8899,  8901,  9713,  9728,  9730,  9731
  9750,  9786,  9787,  9894,  9938,  9954,  9969,  9971, 10091, 10100, 10186, 10191, 10192, 10207, 10208, 10357
 10358, 10679, 10716, 10717, 10718, 10792, 10866, 10868, 10870, 10892, 11241, 11321, 11558, 11770, 11781, 11820
 11828, 11834, 11868, 11878, 11955, 12058, 12284, 12285, 12295, 12296, 12430, 12431, 12481, 12558, 12687, 12719
 12737, 12803, 12829, 12938, 13015, 13016, 13106, 13228, 13274, 13276, 13305, 13381, 13383, 13393, 13578, 13629
 13633, 13711, 13770, 13780, 13782, 13786, 13797, 13798, 13822, 13832, 13843, 13844, 13846, 13853, 13859, 13916
 13938, 13940, 13941, 13943, 13945, 13958, 13961, 13962, 13968, 13971, 13975, 14179, 14181, 14183, 14184, 14251
*Elset, elset=Set-2, instance=sc_bcc-1
  427,  445,  519,  742, 1311, 1607, 1653, 1673, 1721, 1779, 1780, 1884, 1925, 1994, 2034, 2060
 2192, 2598, 2619, 2741, 2743, 2874, 2885, 2986, 3189, 3244, 3288, 3536, 3595, 3843, 3879, 4118
 4123, 4132, 4161, 4236, 4413, 4543, 4549, 4641, 4988, 4993, 5171, 5337, 5363, 5463, 5613, 5828
 5931, 5989, 6149, 6155, 6282, 6619, 6628, 6791, 6808, 6813, 6823, 6826, 6876, 6896, 7080, 7085
 7086, 7108, 7119, 7123, 7126, 7144, 7158, 7159, 7173, 7348, 7441, 7643, 7651, 7812, 7829, 7834
 7835, 8075, 8115, 8119, 8198, 8294, 8366, 8378
*Nset, nset=Set-3, instance=sc_bcc-1
    16,    17,    18,    20,    23,    36,    37,    41,    42,    43,    44,    48,    49,    51,    54,    55
    58,    59,    71,    72,    73,    76,    77,    78,    80,    81,    82,    85,    86,    87,    91,    92
   139,   140,   141,   142,   143,   144,   145,   152,   153,   154,   155,   156,   170,   171,   210,   211
   214,   215,   216,   231,   232,   241,   242,   243,   244,   245,   246,   247,   254,   255,   262,   263
   264,   275,   276,   286,   287,   288,   289,   290,   291,   292,   293,   294,   302,   303,   304,   305
   306,   307,   308,   309,   310,   311,   312,   313,   332,   333,   334,   335,   336,   337,   338,   375
   376,   377,   378,   379,   380,   381,   389,   390,   391,   392,   393,   394,   395,   400,   401,   402
   403,   404,   405,   406,   407,   408,   409,   410,   411,   412,   413,   414,   415,   423,   424,   425
   426,   427,   428,   429,   439,   440,   441,   442,   443,   444,   445,   446,   447,   448,   449,   450
   451,   452,   453,   454,   455,   456,   457,   458,  1315,  1316,  1335,  1336,  2700,  2702,  2704,  3063
  3819,  3820,  3913,  3931,  3939,  4088,  4254,  5214,  5585,  6070,  6072,  6073,  6098,  6099,  6197,  6461
  6511,  6942,  7008,  7009,  7271,  7331,  7355,  7444,  7604,  7605,  7606,  7654,  7696,  7745,  7747,  7749
  7750,  7753,  7756,  7820,  7821,  7822,  7941,  7968,  7969,  7971,  8007,  8011,  8124,  8262,  8272,  8326
  8328,  8330,  8341,  8342,  8398,  8400,  8402,  8407,  8425,  8517,  8578,  8587,  8597,  8677,  8678,  8679
  8811,  8831,  9214,  9215,  9216,  9233,  9360,  9378,  9505,  9507,  9653,  9663,  9674,  9809,  9816,  9893
  9914,  9916,  9917,  9930,  9953,  9954,  9968, 10090, 10091, 10093, 10099, 10100, 10157, 10305, 10306, 10380
 10406, 10455, 10469, 10471, 10473, 10482, 10484, 10488, 10491, 10496, 10498, 10499, 10510, 10512, 10541, 10552
 10556, 10569, 10571, 10572, 10593, 10594, 10601, 10602, 10603, 10619, 10700, 10718, 10737, 10738, 10759, 10760
 10762, 10796, 10797, 10839, 10856, 10857, 10875, 10892, 10893, 10903, 11075, 11090, 11258, 11281, 11337, 11355
 11397, 11402, 11490, 11507, 11508, 11555, 11580, 11586, 11587, 11623, 11648, 11660, 11687, 11767, 11769, 11770
** ... 10 like lines cut
*Elset, elset=Set-3, instance=sc_bcc-1
  113,  409, 1137, 1150, 1507, 1709, 1753, 1778, 1835, 1936, 1950, 1955, 1987, 2099, 2322, 2461
 2705, 2734, 2811, 2816, 2960, 3035, 3046, 3060, 3068, 3084, 3090, 3100, 3102, 3113, 3120, 3206
 3225, 3249, 3250, 3252, 3278, 3308, 3565, 3608, 3664, 3750, 3866, 3870, 3875, 3877, 3904, 3982
 4074, 4178, 4182, 4202, 4205, 4218, 4231, 4306, 4308, 4329, 4338, 4343, 4346, 4652, 4665, 4766
 4793, 5162, 5352, 5503, 5513, 5605, 5671, 5677, 5679, 5801, 5847, 6051, 6084, 6109, 6135, 6154
 6200, 6273, 6292, 6331, 6346, 6426, 6484, 6492, 6498, 6514, 6527, 6558, 6566, 6649, 6651, 6708
 6711, 6715, 6720, 6721, 6723, 6729, 6730, 6733, 6736, 6737, 6740, 6744, 6759, 6764, 6768, 6769
 6771, 6774, 6812, 6854, 6873, 6934, 6955, 6994, 7012, 7013, 7025, 7027, 7038, 7039, 7050, 7051
 7053, 7064, 7070, 7106, 7112, 7116, 7125, 7136, 7165, 7346, 7546, 7657, 7669, 7705, 7767, 7791
 7792, 7796, 7800, 7808, 7844, 7858, 7863, 7864, 7876, 7877, 7891, 7929, 7969, 8071, 8311, 8415
*Nset, nset=Set-4, instance=sc_bcc-1
     1,     5,     7,     8,    14,    27,    28,    32,    51,    52,    53,    54,    55,    56,    57,    58
    61,    62,    63,    65,    67,    68,    73,    74,    75,    76,    82,    83,    84,    85,    89,    94
   102,   103,   107,   108,   124,   125,   126,   130,   131,   132,   133,   134,   135,   136,   179,   180
   193,   194,   195,   205,   206,   233,   234,   235,   236,   237,   238,   239,   279,   280,   281,   282
   283,   284,   285,   286,   287,   288,   289,   290,   291,   292,   293,   294,   295,   296,   297,   298
   299,   300,   301,   302,   303,   304,   305,   306,   307,   308,   309,   310,   324,   325,   326,   327
   328,   329,   330,   345,   346,   350,   351,   352,   359,   360,   361,   371,   372,   382,   383,   384
   385,   386,   387,   388,   404,   405,   406,   407,   408,   409,   410,   411,   412,   416,   417,   418
   419,   420,   421,   422,   434,   435,   441,   442,   443,   444,   445,   446,   447,   448,   449,   462
   463,   464,   465,   466,   467,   468,   469,   470,  1011,  1012,  1350,  1351,  2790,  2791,  2792,  3187
  3188,  3189,  3407,  3425,  3427,  3429,  3435,  3598,  3759,  3773,  3775,  3777,  3791,  3793,  3795,  3820
  3931,  3933,  3935,  3957,  3959,  3961,  4085,  4086,  4088,  4179,  4816,  4818,  4819,  5015,  5020,  5034
  5596,  6046,  6077,  6081,  6126,  6127,  6128,  6197,  6217,  6356,  6358,  6360,  6472,  6500,  6528,  6590
  6698,  6748,  7008,  7059,  7245,  7247,  7277,  7354,  7355,  7419,  7424,  7512,  7514,  7516,  7648,  7666
  7667,  7668,  7785,  7786,  7941,  8032,  8039,  8069,  8071,  8073,  8091,  8095,  8096,  8098,  8256,  8257
  8274,  8303,  8304,  8326,  8332,  8339,  8340,  8341,  8358,  8359,  8484,  8517,  8521,  8523,  8525,  8540
  8559,  8587,  8642,  8645,  8646,  8677,  8899,  8975,  9004,  9006,  9008,  9104,  9137,  9154,  9232,  9233
  9275,  9287,  9476,  9477,  9478,  9513,  9651,  9675,  9679,  9683,  9813,  9816,  9888,  9891,  9892,  9893
  9914,  9943, 10007, 10009, 10014, 10026, 10027, 10086, 10280, 10284, 10285, 10309, 10316, 10330, 10331, 10374
 10375, 10391, 10392, 10394, 10396, 10397, 10404, 10406, 10419, 10420, 10422, 10425, 10504, 10505, 10559, 10560
** ... 10 like lines cut
*Elset, elset=Set-4, instance=sc_bcc-1
  133,  230,  293,  393,  398,  420,  443,  454,  491,  710, 1162, 1263, 1593, 1628, 1683, 1730
 1766, 1870, 1875, 1876, 1932, 1944, 1954, 1963, 2027, 2079, 2081, 2233, 2292, 2327, 2450, 2536
 2551, 2632, 2635, 2686, 2760, 2770, 2947, 2949, 2969, 2982, 2998, 3004, 3006, 3009, 3014, 3065
 3093, 3114, 3121, 3558, 3913, 3956, 4179, 4247, 4258, 4271, 4287, 4307, 4316, 4369, 4371, 4381
 4419, 4427, 4574, 4580, 4638, 4673, 4747, 4792, 4825, 4952, 4961, 5018, 5077, 5121, 5172, 5185
 5228, 5312, 5313, 5314, 5390, 5592, 5621, 5778, 5824, 5922, 5927, 5987, 5991, 6189, 6204, 6343
 6349, 6351, 6356, 6379, 6422, 6429, 6449, 6491, 6507, 6550, 6656, 6710, 6717, 6718, 6742, 6756
 6782, 6838, 6842, 6845, 6848, 6850, 6869, 6889, 6974, 7023, 7117, 7160, 7167, 7205, 7213, 7224
 7232, 7242, 7354, 7504, 7674, 7723, 7752, 7755, 7757, 7770, 7778, 7789, 7790, 7799, 7802, 7803
 7809, 7817, 7818, 7823, 7832, 7857, 7859, 7860, 7869, 7872, 7873, 7879, 7960, 8000, 8077, 8401
*End Assembly
*Amplitude, name=Amp-1
             0.,              0.,              1.,             0.5
** 
** MATERIALS
** 
*Material, name=Material-1
*Elastic
1439., 0.3
*Plastic
 21.3,   0.
  24., 0.02
  26., 0.05
** ----------------------------------------------------------------
** 
** STEP: Step-1
** 
*Step, name=Step-1, nlgeom=YES
*Static
0.01, 1., 1e-05, 0.05
** 
** BOUNDARY CONDITIONS
** 
** Name: BC-1 Type: Displacement/Rotation
*Boundary
Set-1, 1, 1
Set-1, 2, 2
Set-1, 3, 3
Set-1, 4, 4
Set-1, 5, 5
Set-1, 6, 6
** Name: BC-2 Type: Displacement/Rotation
*Boundary, amplitude=Amp-1
Set-2, 2, 2, -1.
** Name: BC-3 Type: Displacement/Rotation
*Boundary
Set-3, 3, 3
** Name: BC-4 Type: Displacement/Rotation
*Boundary
Set-4, 1, 1
** 
** OUTPUT REQUESTS
** 
*Restart, write, frequency=0
** 
** FIELD OUTPUT: F-Output-1
** 
*Output, field, variable=PRESELECT
** 
** HISTORY OUTPUT: H-Output-1
** 
*Output, history, variable=PRESELECT
*End Step
