*Heading
** Job name: sc Model name: Model-1
** Generated by: Abaqus/CAE 2019.HF24
*Preprint, echo=NO, model=NO, history=NO, contact=NO
**
** PARTS
**
*Part, name=sc
*Node
      1,           0.,   1.20000005,   1.20000005
      2,           0.,   1.20000005,   8.80000019
      3,  0.848528147,  0.848528147,   9.15147209
      4,   1.20000005,           0.,   8.80000019
      5,   1.20000005,           0.,   1.20000005
      6,  0.848528147,  0.848528147,  0.848528147
      7,   8.80000019,   1.20000005,           0.
      8,   1.20000005,   1.20000005,           0.
      9,   8.80000019,           0.,   1.20000005
     10,   9.15147209,  0.848528147,  0.848528147
     11,           0.,   8.80000019,   1.20000005
     12,   1.20000005,   8.80000019,           0.
     13,  0.848528147,   9.15147209,  0.848528147
     14,           0.,   8.80000019,   8.80000019
     15,           0.,           0.,           0.
     16,           0.,           0.,          10.
     17,           0.,          10.,          10.
     18,           0.,          10.,           0.
     19,   1.20000005,          10.,   1.20000005
     20,   1.20000005,          10.,   8.80000019
** ... 2668 like lines cut
*Element, type=C3D10
   1,  490,  491,   66,  361,  532,  531,  530,  534,  533,  535
   2,  490,  492,    8,  141,  538,  537,  536,  540,  539,  541
   3,  490,  493,  141,  260,  543,  542,  540,  545,  544,  546
   4,  490,  491,    8,   66,  532,  547,  536,  530,  531,  548
   5,  316,  302,  494,  495,  551,  550,  549,  553,  552,  554
   6,  495,  316,  303,  315,  553,  556,  555,  558,  557,  559
   7,  495,  335,  474,  475,  562,  561,  560,  564,  563,  565
   8,  495,  335,  496,  303,  562,  567,  566,  555,  568,  569
   9,   22,  219,  152,  497,  572,  571,  570,  574,  573,  575
  10,  498,   37,  241,  294,  578,  577,  576,  580,  579,  581
  11,  498,  499,  434,  294,  584,  583,  582,  580,  585,  586
  12,  498,  499,  261,  434,  584,  588,  587,  582,  583,  589
  13,  498,   34,  500,  292,  592,  591,  590,  594,  593,  595
  14,  498,  434,  261,  292,  582,  589,  587,  594,  596,  597
  15,  106,   57,  260,  493,  600,  599,  598,  602,  601,  544
  16,  498,  500,   36,  292,  590,  604,  603,  594,  595,  605
  17,   58,  106,  141,  493,  608,  607,  606,  609,  602,  542
  18,  490,   58,  492,  141,  611,  610,  538,  540,  606,  539
  19,  490,    6,  493,   57,  613,  612,  543,  615,  614,  601
  20,  490,  492,  370,   66,  538,  617,  616,  530,  618,  619
** ... 1109 like lines cut
*Nset, nset=Set-1, generate
    1,  2688,     1
*Elset, elset=Set-1, generate
    1,  1129,     1
** Section: Section-1
*Solid Section, elset=Set-1, material=Material-1
,
*End Part
**  
**
** ASSEMBLY
**
*Assembly, name=Assembly
**  
*Instance, name=sc-1, part=sc
*End Instance
**  
*Nset, nset=Set-1, instance=sc-1
    4,    5,    9,   15,   16,   24,   29,   33,   50,   51,   52,   53,   54,   55,   56,   67
   68,   69,   70,   71,   72,   73,  106,  107,  108,  109,  110,  111,  112,  113,  114,  161
  162,  163,  164,  165,  166,  167,  185,  186,  187,  188,  189,  190,  191,  193,  194,  195
  196,  197,  198,  199,  200,  201,  252,  253,  254,  255,  256,  257,  258,  259,  260,  275
  276,  277,  278,  279,  280,  281,  282,  283,  598,  657,  665,  670,  672,  683,  684,  685
  958,  960,  962, 1010, 1011, 1013, 1035, 1039, 1040, 1041, 1047, 1057, 1059, 1061, 1062, 1095
 1159, 1221, 1225, 1227, 1297, 1298, 1299, 1310, 1311, 1312, 1342, 1343, 1346, 1362, 1579, 1580
 1582, 1797, 1871, 1872, 1873, 1911, 1917, 1919, 1922, 1927, 1941, 1943, 1946, 1947, 1948, 1952
 1954, 1955, 1963, 1964, 1965, 2010, 2013, 2014, 2016, 2052, 2061, 2063, 2067, 2071, 2073, 2076
 2079, 2085, 2086, 2089, 2090, 2091, 2115, 2116, 2117, 2129, 2130, 2138, 2142, 2148, 2164, 2167
 2174, 2184, 2198, 2205, 2212, 2213, 2214, 2219, 2220, 2230, 2233, 2270, 2332, 2334, 2357, 2417
 2419, 2422, 2425, 2433, 2491, 2492, 2497, 2498, 2499, 2502, 2503, 2504, 2505, 2506, 2507, 2511
 2516, 2517, 2536, 2537, 2618, 2629, 2630, 2631, 2633, 2644, 2645, 2647, 2648, 2659, 2663, 2664
 2665, 2666, 2669, 2670, 2685, 2686, 2687, 2688
*Elset, elset=Set-1, instance=sc-1
   33,   37,  111,  125,  133,  138,  167,  188,  211,  216,  229,  329,  487,  517,  519,  531
  533,  535,  583,  584,  628,  631,  634,  635,  639,  658,  662,  675,  681,  687,  707,  708
  719,  735,  747,  749,  753,  759,  765,  770,  824,  877,  882,  918,  919,  920,  921,  924
  927,  930,  936,  951,  952,  953, 1043, 1048, 1049, 1059, 1062, 1064, 1066, 1075, 1078, 1089
 1092, 1093, 1095, 1114, 1123, 1125, 1126, 1127
*Nset, nset=Set-3, instance=sc-1
   17,   18,   19,   20,   30,   32,   37,   38,  124,  125,  126,  127,  128,  129,  130,  131
  132,  143,  144,  145,  146,  147,  148,  149,  211,  212,  213,  214,  215,  216,  217,  218
  219,  234,  235,  236,  237,  238,  239,  240,  241,  242,  294,  295,  296,  297,  298,  299
  300,  301,  302,  303,  304,  305,  306,  307,  308,  309,  310,  311,  312,  313,  314,  315
  316,  317,  318,  319,  320,  321,  322,  323,  551,  556,  557,  559,  577,  579,  581,  724
  726,  728,  764,  767,  788,  856,  858,  859,  943,  944,  945, 1122, 1124, 1125, 1128, 1129
 1131, 1245, 1324, 1328, 1330, 1385, 1389, 1391, 1409, 1411, 1413, 1424, 1425, 1426, 1430, 1438
 1439, 1440, 1441, 1450, 1519, 1528, 1559, 1563, 1573, 1575, 1576, 1587, 1588, 1596, 1604, 1609
 1611, 1612, 1616, 1619, 1620, 1622, 1624, 1632, 1642, 1644, 1647, 1649, 1650, 1652, 1653, 1654
 1660, 1662, 1666, 1667, 1668, 1669, 1675, 1676, 1679, 1681, 1683, 1686, 1693, 1698, 1700, 1707
 1713, 1714, 1715, 1723, 1727, 1728, 1729, 1733, 1734, 1737, 1741, 1751, 1752, 1757, 1758, 1765
 1766, 1767, 1771, 1784, 1802, 1987, 2028, 2029, 2040, 2180, 2297, 2335, 2336, 2339, 2341, 2358
 2359, 2360, 2364, 2366, 2375, 2376, 2377, 2381, 2382, 2384, 2392, 2393, 2397, 2398, 2399, 2400
 2406, 2412, 2413, 2485, 2538, 2573, 2579, 2580
*Elset, elset=Set-3, instance=sc-1
    6,   10,   47,   81,  106,  155,  157,  221,  250,  254,  259,  260,  326,  332,  335,  339
  345,  346,  348,  350,  359,  363,  364,  365,  372,  374,  375,  377,  378,  382,  384,  386
  388,  389,  392,  399,  408,  411,  413,  414,  416,  420,  425,  430,  432,  559,  593,  594
  603,  800,  825,  827,  842,  844,  845,  852,  854,  855,  857,  861,  866,  870,  874,  884
  895,  954,  955,  994,  996,  997, 1018, 1094
*Nset, nset=Set-4, instance=sc-1
    7,    8,   12,   15,   16,   17,   18,   22,   23,   25,   29,   30,   31,   32,   33,   34
   59,   60,   61,   62,   63,   64,   65,   83,   84,   85,   86,   87,   88,   89,  115,  116
  117,  118,  119,  120,  121,  122,  123,  133,  134,  135,  136,  137,  138,  139,  140,  141
  153,  154,  155,  156,  157,  158,  159,  168,  169,  170,  171,  172,  173,  174,  193,  194
  195,  196,  197,  198,  199,  200,  201,  202,  203,  204,  205,  206,  207,  208,  209,  210
  211,  212,  213,  214,  215,  216,  217,  218,  219,  220,  221,  222,  223,  224,  225,  226
  227,  228,  229,  230,  231,  232,  233,  234,  235,  236,  237,  238,  239,  240,  241,  242
  243,  244,  245,  246,  247,  248,  249,  250,  251,  252,  253,  254,  255,  256,  257,  258
  259,  260,  261,  262,  263,  264,  265,  266,  267,  268,  269,  270,  271,  272,  273,  274
  541,  546,  572,  626,  634,  697,  704,  705,  706,  732,  736,  738,  821,  849,  861,  867
  882,  902,  904,  906,  954,  989, 1000, 1025, 1027, 1029, 1040, 1053, 1064, 1065, 1066, 1079
 1086, 1088, 1117, 1119, 1120, 1121, 1122, 1125, 1151, 1180, 1181, 1214, 1216, 1253, 1262, 1265
 1278, 1280, 1282, 1312, 1318, 1321, 1323, 1331, 1332, 1372, 1395, 1397, 1460, 1461, 1463, 1484
 1493, 1496, 1500, 1504, 1509, 1510, 1511, 1519, 1521, 1539, 1559, 1567, 1573, 1591, 1592, 1593
 1596, 1599, 1607, 1611, 1623, 1624, 1641, 1642, 1676, 1680, 1684, 1685, 1696, 1698, 1699, 1700
 1702, 1736, 1737, 1741, 1750, 1757, 1759, 1760, 1762, 1784, 1791, 1804, 1805, 1810, 1828, 1830
 1848, 1853, 1857, 1866, 1867, 1877, 1881, 1885, 1888, 1890, 1891, 1895, 1896, 1897, 1933, 1934
 1935, 1940, 1941, 1943, 1946, 1956, 1959, 1960, 1963, 1967, 1970, 1971, 1974, 1976, 1977, 1980
 1981, 1982, 1984, 1986, 1987, 1989, 1991, 1993, 1995, 1997, 1998, 2001, 2003, 2010, 2012, 2016
 2023, 2024, 2025, 2027, 2029, 2031, 2033, 2034, 2035, 2037, 2038, 2039, 2042, 2043, 2044, 2046
** ... 7 like lines cut
*Elset, elset=Set-4, instance=sc-1
   22,   42,   97,  129,  139,  153,  154,  173,  202,  206,  219,  222,  296,  301,  333,  387
  390,  391,  407,  417,  431,  448,  450,  460,  485,  489,  500,  501,  506,  526,  527,  529
  530,  534,  536,  538,  539,  543,  545,  546,  547,  551,  552,  554,  555,  558,  560,  564
  566,  572,  575,  578,  581,  585,  589,  592,  595,  599,  600,  601,  602,  604,  605,  606
  608,  610,  612,  614,  618,  619,  620,  622,  626,  632,  633,  641,  643,  650,  651,  652
  654,  655,  702,  706,  726,  727,  728,  730,  744,  751,  756,  761,  773,  777,  778,  779
  782,  784,  788,  792,  794,  797,  798,  802,  804,  807,  814,  817,  830,  840,  862,  881
  894,  900,  903,  906,  907,  908,  912,  932,  956,  963,  964,  971,  975,  985,  986,  987
 1002, 1007, 1012, 1014, 1016, 1034, 1042, 1046, 1068, 1069, 1070, 1071, 1076, 1081, 1084, 1113
*Nset, nset=Set-5, instance=sc-1
    1,    2,   11,   14,   15,   16,   17,   18,   27,   28,   29,   30,   32,   33,   35,   40
   41,   42,   43,   44,   45,   46,   47,   76,   77,   78,   79,   80,   81,   82,   92,   93
   94,   95,   96,   97,   98,   99,  100,  101,  102,  103,  104,  105,  106,  107,  108,  109
  110,  111,  112,  113,  114,  115,  116,  117,  118,  119,  120,  121,  122,  123,  124,  125
  126,  127,  128,  129,  130,  131,  132,  133,  134,  135,  136,  137,  138,  139,  140,  141
  177,  178,  179,  180,  181,  182,  183,  202,  203,  204,  205,  206,  207,  208,  209,  210
  243,  244,  245,  246,  247,  248,  249,  250,  251,  275,  276,  277,  278,  279,  280,  281
  282,  283,  284,  285,  286,  287,  288,  289,  290,  301,  302,  303,  304,  305,  306,  307
  308,  309,  326,  327,  328,  329,  330,  331,  332,  334,  335,  336,  337,  338,  339,  340
  568,  607,  651,  655,  657,  659,  662,  675,  680,  689,  690,  717,  758,  760,  767,  783
  785,  796,  801,  835,  863,  865,  878,  881,  882,  884,  918,  920,  922,  933,  939,  958
  982,  984,  985,  986,  996,  998, 1000, 1001, 1002, 1008, 1011, 1019, 1021, 1024, 1089, 1090
 1091, 1095, 1124, 1137, 1139, 1141, 1153, 1154, 1156, 1158, 1160, 1162, 1174, 1175, 1176, 1203
 1260, 1262, 1291, 1335, 1337, 1356, 1361, 1362, 1363, 1365, 1428, 1429, 1430, 1432, 1441, 1445
 1446, 1448, 1450, 1452, 1461, 1462, 1465, 1466, 1478, 1480, 1481, 1482, 1500, 1504, 1507, 1509
 1511, 1512, 1513, 1520, 1528, 1529, 1533, 1537, 1538, 1539, 1541, 1622, 1623, 1630, 1641, 1645
 1647, 1654, 1660, 1664, 1665, 1673, 1686, 1701, 1702, 1703, 1785, 1789, 1790, 1791, 1806, 1810
 1811, 1839, 1840, 1841, 1857, 1863, 1864, 1867, 1869, 1870, 1877, 1881, 1882, 1884, 1911, 1915
 1919, 1927, 1928, 1929, 1931, 1932, 1973, 1982, 2012, 2013, 2017, 2020, 2021, 2058, 2107, 2115
 2125, 2127, 2133, 2134, 2135, 2138, 2143, 2145, 2147, 2151, 2152, 2154, 2155, 2159, 2161, 2168
** ... 7 like lines cut
*Elset, elset=Set-5, instance=sc-1
   30,   38,   85,   92,  101,  116,  117,  123,  127,  147,  160,  166,  168,  172,  200,  234
  255,  256,  263,  264,  267,  271,  274,  277,  281,  288,  298,  300,  307,  311,  312,  314
  330,  341,  347,  358,  362,  373,  379,  409,  437,  438,  439,  445,  452,  464,  471,  482
  486,  488,  497,  508,  515,  523,  524,  537,  573,  586,  588,  611,  615,  648,  661,  663
  664,  667,  669,  682,  686,  689,  692,  694,  696,  698,  710,  713,  715,  723,  805,  809
  810,  811,  816,  867,  868,  873,  875,  876,  878,  879,  880,  883,  885,  887,  890,  891
  896,  901,  902,  904,  909,  910,  911,  914,  915,  916,  917,  922,  923,  926,  928,  935
  938,  942,  943,  947,  950,  957,  958,  960,  961,  962,  965,  966,  967,  969,  970,  978
  988,  998, 1003, 1008, 1010, 1017, 1020, 1021, 1052, 1061, 1101, 1106, 1107, 1111, 1116, 1120
*Nset, nset=top, instance=sc-1
   17,   18,   19,   20,   30,   32,   37,   38,  124,  125,  126,  127,  128,  129,  130,  131
  132,  143,  144,  145,  146,  147,  148,  149,  211,  212,  213,  214,  215,  216,  217,  218
  219,  234,  235,  236,  237,  238,  239,  240,  241,  242,  294,  295,  296,  297,  298,  299
  300,  301,  302,  303,  304,  305,  306,  307,  308,  309,  310,  311,  312,  313,  314,  315
  316,  317,  318,  319,  320,  321,  322,  323,  551,  556,  557,  559,  577,  579,  581,  724
  726,  728,  764,  767,  788,  856,  858,  859,  943,  944,  945, 1122, 1124, 1125, 1128, 1129
 1131, 1245, 1324, 1328, 1330, 1385, 1389, 1391, 1409, 1411, 1413, 1424, 1425, 1426, 1430, 1438
 1439, 1440, 1441, 1450, 1519, 1528, 1559, 1563, 1573, 1575, 1576, 1587, 1588, 1596, 1604, 1609
 1611, 1612, 1616, 1619, 1620, 1622, 1624, 1632, 1642, 1644, 1647, 1649, 1650, 1652, 1653, 1654
 1660, 1662, 1666, 1667, 1668, 1669, 1675, 1676, 1679, 1681, 1683, 1686, 1693, 1698, 1700, 1707
 1713, 1714, 1715, 1723, 1727, 1728, 1729, 1733, 1734, 1737, 1741, 1751, 1752, 1757, 1758, 1765
 1766, 1767, 1771, 1784, 1802, 1987, 2028, 2029, 2040, 2180, 2297, 2335, 2336, 2339, 2341, 2358
 2359, 2360, 2364, 2366, 2375, 2376, 2377, 2381, 2382, 2384, 2392, 2393, 2397, 2398, 2399, 2400
 2406, 2412, 2413, 2485, 2538, 2573, 2579, 2580
*Elset, elset=top, instance=sc-1
    6,   10,   47,   81,  106,  155,  157,  221,  250,  254,  259,  260,  326,  332,  335,  339
  345,  346,  348,  350,  359,  363,  364,  365,  372,  374,  375,  377,  378,  382,  384,  386
  388,  389,  392,  399,  408,  411,  413,  414,  416,  420,  425,  430,  432,  559,  593,  594
  603,  800,  825,  827,  842,  844,  845,  852,  854,  855,  857,  861,  866,  870,  874,  884
  895,  954,  955,  994,  996,  997, 1018, 1094
*End Assembly
*Amplitude, name=Amp-1
             0.,              0.,              1.,             0.5
** 
** MATERIALS
** 
*Material, name=Material-1
*Elastic
1439., 0.3
*Plastic
 21.3,   0.
  24., 0.02
  26., 0.05
** ----------------------------------------------------------------
** 
** STEP: Step-1
** 
*Step, name=Step-1, nlgeom=YES
*Static
0.01, 1., 1e-05, 0.05
** 
** BOUNDARY CONDITIONS
** 
** Name: BC-1 Type: Displacement/Rotation
*Boundary
Set-1, 1, 1
Set-1, 2, 2
Set-1, 3, 3
Set-1, 4, 4
Set-1, 5, 5
Set-1, 6, 6
** Name: BC-2 Type: Displacement/Rotation
*Boundary, amplitude=Amp-1
Set-3, 2, 2, -1.
** Name: BC-3 Type: Displacement/Rotation
*Boundary
Set-4, 3, 3
** Name: BC-4 Type: Displacement/Rotation
*Boundary
Set-5, 1, 1
** 
** OUTPUT REQUESTS
** 
*Restart, write, frequency=0
** 
** FIELD OUTPUT: F-Output-1
** 
*Output, field, variable=PRESELECT
** 
** HISTORY OUTPUT: H-Output-1
** 
*Output, history, variable=PRESELECT
*End Step
